OPT_V9/8ts_w_storgae_myc_NEW_PARAM/powerflow_results_t1.txt
Pandapower Network Debug Info
==================================================

BUS:
       vm_pu  va_degree      p_mw    q_mvar
0   1.006030   0.289482 -0.004168  0.000123
1   1.008780   0.437619 -0.003123  0.000413
2   1.010478   0.518331 -0.001950  0.000067
3   1.008883   0.403453 -0.004149 -0.000211
4   1.003517   0.160071 -0.001955  0.000049
5   1.005968   0.268151 -0.002704 -0.000437
6   1.010072   0.481061 -0.005070  0.000384
7   1.003631   0.138667 -0.005087 -0.000440
8   1.001195   0.050875 -0.004830 -0.000441
9   0.999958   0.001138  0.003196  0.009062
10  0.999951   0.001101  0.003541  0.005752
11  0.999945   0.000965  0.010111  0.003030
12  0.999976   0.002742  0.002849  0.006077
13  0.999967   0.002603  0.003228  0.005259
14  0.999961   0.002470  0.010111  0.003140
15  0.999982   0.000930  0.000000  0.000000
16  0.999982   0.000930  0.000000  0.000000
17  0.999978   0.002665  0.000000  0.000000
18  0.999978   0.002665  0.000000  0.000000
19  1.000000   0.000000 -0.003592 -0.023325
20  1.000000   0.000003  0.000000  0.000000
21  1.000000   0.000000  0.003340 -0.018667
22  1.000000   0.000002  0.000000  0.000000
--------------------------------------------------

LINE:
    p_from_mw   q_from_mvar   p_to_mw  q_to_mvar         pl_mw       ql_mvar  i_from_ka   i_to_ka      i_ka  vm_from_pu  va_from_degree  vm_to_pu  va_to_degree  loading_percent
0    0.003582  1.932483e-02 -0.003582  -0.019325  3.778324e-07  2.946021e-07   0.000756  0.000756  0.000756    1.000000        0.000003  0.999982      0.000930         0.328905
1   -0.003350  1.466741e-02  0.003350  -0.014667  6.088583e-07  4.747368e-07   0.000579  0.000579  0.000579    1.000000        0.000002  0.999978      0.002665         0.251775
2    0.016849  1.784535e-02 -0.016849  -0.017845  4.658072e-07  3.631975e-07   0.000945  0.000945  0.000945    0.999982        0.000930  0.999958      0.001138         0.410728
3    0.002849  6.076810e-03 -0.002849  -0.006077  1.557804e-08  1.214646e-08   0.000258  0.000258  0.000258    0.999978        0.002665  0.999976      0.002742         0.112318
4    0.013339  8.398816e-03 -0.013339  -0.008399  1.358694e-07  1.059396e-07   0.000607  0.000607  0.000607    0.999978        0.002665  0.999967      0.002603         0.263797
5   -0.013278  4.792717e-04  0.013360  -0.000415  8.256922e-05  6.438058e-05   0.019178  0.019178  0.019178    0.999982        0.000930  1.006030      0.289482         8.338106
6   -0.007706 -2.461602e-07  0.007752   0.000036  4.606851e-05  3.592037e-05   0.011122  0.011122  0.011122    0.999978        0.002665  1.005968      0.268151         4.835862
7   -0.005070 -4.267414e-04  0.005087   0.000440  1.748720e-05  1.363506e-05   0.007343  0.007343  0.007343    0.999978        0.002665  1.003631      0.138667         3.192748
8   -0.006773 -3.816125e-04  0.006781   0.000388  7.912954e-06  6.169860e-06   0.009792  0.009792  0.009792    0.999978        0.002665  1.001195      0.050875         4.257313
9   -0.013652 -8.782532e-03  0.013653   0.008783  9.114047e-08  7.106372e-08   0.000625  0.000625  0.000625    0.999951        0.001101  0.999958      0.001138         0.271675
10  -0.010111 -3.030196e-03  0.010111   0.003030  5.449740e-08  4.249252e-08   0.000406  0.000406  0.000406    0.999945        0.000965  0.999951      0.001101         0.176654
11  -0.010111 -3.139813e-03  0.010111   0.003140  5.482640e-08  4.274905e-08   0.000408  0.000408  0.000408    0.999961        0.002470  0.999967      0.002603         0.177187
12   0.005070 -4.821941e-04 -0.005055   0.000494  1.507725e-05  1.175598e-05   0.007286  0.007286  0.007286    1.008780        0.437619  1.006030      0.289482         3.168031
13   0.004149  2.112232e-04 -0.004138  -0.000202  1.132122e-05  8.827340e-06   0.005943  0.005943  0.005943    1.008883        0.403453  1.006030      0.289482         2.584119
14   0.001950 -6.655690e-05 -0.001947   0.000069  3.374378e-06  2.631058e-06   0.002788  0.002788  0.002788    1.010478        0.518331  1.008780      0.437619         1.212053
15  -0.001950  5.287721e-05  0.001955  -0.000049  4.621430e-06  3.603405e-06   0.002813  0.002813  0.002813    1.001195        0.050875  1.003517      0.160071         1.223034
16   0.005070 -3.840882e-04 -0.005048   0.000401  2.205726e-05  1.719841e-05   0.007265  0.007265  0.007265    1.010072        0.481061  1.005968      0.268151         3.158730
--------------------------------------------------

TRAFO:
    p_hv_mw  q_hv_mvar   p_lv_mw  q_lv_mvar    pl_mw  ql_mvar   i_hv_ka   i_lv_ka  vm_hv_pu  va_hv_degree  vm_lv_pu  va_lv_degree  loading_percent
0 -0.013268   0.001479  0.013278  -0.000479  0.00001    0.001  0.000514  0.019178  0.999982      0.000930  0.999982      0.000930         0.133502
1 -0.019538   0.000191  0.019548   0.000809  0.00001    0.001  0.000752  0.028240  0.999978      0.002665  0.999978      0.002665         0.195655
2  0.003592   0.023325 -0.003582  -0.019325  0.00001    0.004  0.000195  0.000756  1.000000      0.000000  1.000000      0.000003         0.058999
3 -0.003340   0.018667  0.003350  -0.014667  0.00001    0.004  0.000156  0.000579  1.000000      0.000000  1.000000      0.000002         0.047409
--------------------------------------------------
